Version 4
SHEET 1 880 788
WIRE -320 0 -352 0
WIRE 672 16 240 16
WIRE -64 32 -80 32
WIRE 64 32 16 32
WIRE 96 32 64 32
WIRE 432 32 176 32
WIRE 672 48 672 16
WIRE -80 64 -80 32
WIRE -352 80 -352 0
WIRE -320 80 -352 80
WIRE -192 80 -240 80
WIRE 240 80 240 16
WIRE 64 128 64 32
WIRE 208 128 64 128
WIRE 48 144 -288 144
WIRE -288 160 -288 144
WIRE 432 160 432 32
WIRE 432 160 352 160
WIRE 672 160 672 128
WIRE 752 160 672 160
WIRE -352 176 -352 80
WIRE -320 176 -352 176
WIRE 752 176 752 160
WIRE -192 192 -192 80
WIRE -192 192 -256 192
WIRE 208 192 -192 192
WIRE 672 192 672 160
WIRE -592 208 -784 208
WIRE -464 208 -512 208
WIRE -320 208 -464 208
WIRE -464 224 -464 208
WIRE 48 224 48 144
WIRE -288 256 -288 224
WIRE 288 256 288 240
WIRE 240 304 240 240
WIRE 672 304 672 272
WIRE 672 304 240 304
WIRE 48 336 48 304
WIRE 432 352 432 160
WIRE -784 384 -784 208
WIRE -464 384 -464 304
WIRE -352 464 -352 176
WIRE -320 464 -352 464
WIRE 432 464 432 432
WIRE 432 464 -240 464
WIRE -784 496 -784 464
WIRE 432 496 432 464
WIRE 432 608 432 576
FLAG 288 256 0
FLAG 752 176 0
FLAG 432 608 0
FLAG 48 336 0
FLAG -288 256 0
FLAG -464 384 0
FLAG -784 496 0
FLAG -80 64 0
SYMBOL Opamps\\LT1210 240 160 R0
SYMATTR InstName U1
SYMBOL voltage 672 32 R0
WINDOW 123 0 0 Left 0
WINDOW 39 0 0 Left 0
SYMATTR InstName V1
SYMATTR Value 30
SYMBOL ind 416 336 R0
SYMATTR InstName L1
SYMATTR Value 47e-6
SYMATTR SpiceLine Rser=5
SYMBOL voltage 48 208 R0
WINDOW 123 0 0 Left 0
WINDOW 39 0 0 Left 0
SYMATTR InstName V2
SYMATTR Value 15
SYMBOL res 192 16 R90
WINDOW 0 0 56 VBottom 2
WINDOW 3 32 56 VTop 2
SYMATTR InstName R4
SYMATTR Value 20e3
SYMATTR SpiceLine tol=1
SYMBOL res 32 16 R90
WINDOW 0 0 56 VBottom 2
WINDOW 3 32 56 VTop 2
SYMATTR InstName R5
SYMATTR Value 10e3
SYMATTR SpiceLine tol=1
SYMBOL res -224 64 R90
WINDOW 0 0 56 VBottom 2
WINDOW 3 32 56 VTop 2
SYMATTR InstName R6
SYMATTR Value 20e3
SYMATTR SpiceLine tol=1
SYMBOL res -224 448 R90
WINDOW 0 0 56 VBottom 2
WINDOW 3 32 56 VTop 2
SYMATTR InstName R7
SYMATTR Value 1000
SYMATTR SpiceLine tol=1
SYMBOL res -496 192 R90
WINDOW 0 0 56 VBottom 2
WINDOW 3 32 56 VTop 2
SYMATTR InstName R9
SYMATTR Value 10e3
SYMATTR SpiceLine tol=1
SYMBOL Opamps\\ADA4622 -288 128 R0
SYMATTR InstName U4
SYMBOL voltage 672 176 R0
WINDOW 123 0 0 Left 0
WINDOW 39 0 0 Left 0
SYMATTR InstName V5
SYMATTR Value 7
SYMBOL cap -256 -16 R90
WINDOW 0 0 32 VBottom 2
WINDOW 3 32 32 VTop 2
SYMATTR InstName C3
SYMATTR Value 3.3e-9
SYMBOL voltage -784 368 R0
WINDOW 123 24 124 Left 2
WINDOW 39 0 0 Left 0
SYMATTR Value2 AC 1
SYMATTR InstName V4
SYMATTR Value SINE(1.65 1.65 25 0 0 0)
SYMBOL res -448 320 R180
WINDOW 0 36 76 Left 2
WINDOW 3 36 40 Left 2
SYMATTR InstName R10
SYMATTR Value 20e3
SYMATTR SpiceLine tol=1
SYMBOL res 416 480 R0
SYMATTR InstName R1
SYMATTR Value 1
TEXT 352 -16 Left 2 !.tran 0 .5 .4 0.0001
