Version 4
SHEET 1 880 680
WIRE 672 16 240 16
WIRE 672 48 672 16
WIRE 240 80 240 16
WIRE 208 128 128 128
WIRE 416 160 352 160
WIRE 512 160 416 160
WIRE 672 160 672 128
WIRE 752 160 672 160
WIRE 752 176 752 160
WIRE -144 192 -192 192
WIRE 32 192 -64 192
WIRE 208 192 32 192
WIRE 416 192 416 160
WIRE 512 208 512 160
WIRE 32 224 32 192
WIRE -192 256 -192 192
WIRE 288 256 288 240
WIRE 240 304 240 240
WIRE 672 304 672 160
WIRE 672 304 240 304
WIRE 128 320 128 128
WIRE 160 320 128 320
WIRE 416 320 416 272
WIRE 416 320 240 320
WIRE 512 320 512 272
WIRE 512 320 416 320
WIRE 32 352 32 304
WIRE 128 352 128 320
WIRE 416 352 416 320
WIRE -192 368 -192 336
WIRE 128 480 128 432
WIRE 416 480 416 432
FLAG 288 256 0
FLAG 752 176 0
FLAG 416 480 0
FLAG 128 480 0
FLAG -192 368 0
FLAG 32 352 0
SYMBOL Opamps\\LT1210 240 160 R0
SYMATTR InstName U1
SYMBOL voltage 672 32 R0
WINDOW 123 0 0 Left 0
WINDOW 39 0 0 Left 0
SYMATTR InstName V1
SYMATTR Value 30
SYMBOL ind 400 176 R0
SYMATTR InstName L1
SYMATTR Value 47e-3
SYMATTR SpiceLine Rser=1
SYMBOL res 400 336 R0
SYMATTR InstName R1
SYMATTR Value 1
SYMATTR SpiceLine tol=1
SYMBOL res 256 304 R90
WINDOW 0 0 56 VBottom 2
WINDOW 3 32 56 VTop 2
SYMATTR InstName R2
SYMATTR Value 1e4
SYMATTR SpiceLine tol=1
SYMBOL res 144 448 R180
WINDOW 0 36 76 Left 2
WINDOW 3 36 40 Left 2
SYMATTR InstName R3
SYMATTR Value 1e4
SYMATTR SpiceLine tol=1
SYMBOL voltage -192 240 R0
WINDOW 123 24 124 Left 2
WINDOW 39 0 0 Left 0
SYMATTR Value2 AC 1
SYMATTR InstName V3
SYMATTR Value SINE(1 0.5 25)
SYMBOL res -160 208 R270
WINDOW 0 32 56 VTop 2
WINDOW 3 0 56 VBottom 2
SYMATTR InstName R4
SYMATTR Value 1e4
SYMATTR SpiceLine tol=1
SYMBOL res 48 320 R180
WINDOW 0 36 76 Left 2
WINDOW 3 36 40 Left 2
SYMATTR InstName R5
SYMATTR Value 1e4
SYMATTR SpiceLine tol=1
SYMBOL cap 496 208 R0
SYMATTR InstName C1
SYMATTR Value 1e-9
SYMATTR SpiceLine V=50
TEXT -80 504 Left 2 !.tran 0 .5 .4 0.0001
