Version 4
SHEET 1 1368 788
WIRE 672 16 240 16
WIRE 672 48 672 16
WIRE 240 96 240 16
WIRE -64 128 -256 128
WIRE 80 128 16 128
WIRE 208 128 80 128
WIRE 432 144 288 144
WIRE 208 160 144 160
WIRE 672 160 672 128
WIRE 752 160 672 160
WIRE 752 176 752 160
WIRE 672 192 672 160
WIRE 144 224 144 160
WIRE 240 304 240 192
WIRE 672 304 672 272
WIRE 672 304 240 304
WIRE 432 352 432 144
WIRE -256 368 -256 128
WIRE 80 464 80 128
WIRE 240 464 80 464
WIRE 432 464 432 432
WIRE 432 464 320 464
WIRE -256 480 -256 448
WIRE 432 496 432 464
WIRE 432 608 432 576
FLAG 752 176 0
FLAG 432 608 0
FLAG -256 480 0
FLAG 144 224 0
SYMBOL voltage 672 32 R0
WINDOW 123 0 0 Left 0
WINDOW 39 0 0 Left 0
SYMATTR InstName V1
SYMATTR Value 15
SYMBOL ind 416 336 R0
SYMATTR InstName L1
SYMATTR Value 47e-6
SYMATTR SpiceLine Rser=5
SYMBOL res 336 448 R90
WINDOW 0 0 56 VBottom 2
WINDOW 3 32 56 VTop 2
SYMATTR InstName R4
SYMATTR Value 500
SYMATTR SpiceLine tol=1
SYMBOL res 32 112 R90
WINDOW 0 0 56 VBottom 2
WINDOW 3 32 56 VTop 2
SYMATTR InstName R9
SYMATTR Value 1000
SYMATTR SpiceLine tol=1
SYMBOL voltage 672 176 R0
WINDOW 123 0 0 Left 0
WINDOW 39 0 0 Left 0
SYMATTR InstName V5
SYMATTR Value 15
SYMBOL voltage -256 352 R0
WINDOW 123 24 124 Left 2
WINDOW 39 0 0 Left 0
SYMATTR Value2 AC 1
SYMATTR InstName V4
SYMATTR Value SINE(.5 .5 25 0 0 0)
SYMBOL res 416 480 R0
SYMATTR InstName R1
SYMATTR Value 1
SYMBOL SpecialFunctions\\LT1739 240 144 R0
SYMATTR InstName U1
TEXT 152 352 Left 2 !.tran 0 .5 .4 0.0001
