Version 4
SHEET 1 880 788
WIRE 672 16 240 16
WIRE -64 32 -80 32
WIRE 64 32 16 32
WIRE 96 32 64 32
WIRE 432 32 176 32
WIRE 672 48 672 16
WIRE -80 64 -80 32
WIRE -496 80 -528 80
WIRE -384 80 -416 80
WIRE -320 80 -352 80
WIRE -192 80 -240 80
WIRE 240 80 240 16
WIRE -528 112 -528 80
WIRE 64 128 64 32
WIRE 208 128 64 128
WIRE 48 144 -288 144
WIRE -288 160 -288 144
WIRE 432 160 432 32
WIRE 432 160 352 160
WIRE 672 160 672 128
WIRE 752 160 672 160
WIRE -352 176 -352 80
WIRE -320 176 -352 176
WIRE 752 176 752 160
WIRE -192 192 -192 80
WIRE -192 192 -256 192
WIRE 208 192 -192 192
WIRE 672 192 672 160
WIRE -496 208 -624 208
WIRE -384 208 -384 80
WIRE -384 208 -416 208
WIRE -320 208 -384 208
WIRE -288 256 -288 224
WIRE 288 256 288 240
WIRE -624 272 -624 208
WIRE 48 272 48 144
WIRE 208 272 48 272
WIRE 48 304 48 272
WIRE 240 304 240 240
WIRE 672 304 672 272
WIRE 672 304 240 304
WIRE 288 336 240 336
WIRE 320 336 288 336
WIRE 432 336 432 160
WIRE 432 336 400 336
WIRE 432 352 432 336
WIRE 288 368 288 336
WIRE -624 384 -624 352
WIRE 240 384 240 336
WIRE 240 384 160 384
WIRE -352 416 -352 176
WIRE -320 416 -352 416
WIRE -176 416 -240 416
WIRE 240 448 160 448
WIRE 240 464 240 448
WIRE 288 464 288 432
WIRE 288 464 240 464
WIRE 320 464 288 464
WIRE 432 464 432 432
WIRE 432 464 400 464
WIRE 528 464 432 464
WIRE -176 496 -256 496
WIRE 432 496 432 464
WIRE 528 512 528 464
WIRE 208 560 208 272
WIRE -256 624 -256 496
WIRE -176 624 -256 624
WIRE 432 624 432 576
WIRE 528 624 528 576
WIRE 528 624 432 624
WIRE -256 656 -256 624
WIRE 432 656 432 624
WIRE 48 672 48 640
WIRE 208 672 208 640
FLAG 288 256 0
FLAG 752 176 0
FLAG -624 384 0
FLAG 432 656 0
FLAG 208 672 0
FLAG 48 672 0
FLAG -256 656 0
FLAG -288 256 0
FLAG -528 112 0
SYMBOL Opamps\\LT1210 240 160 R0
SYMATTR InstName U1
SYMBOL voltage 672 32 R0
WINDOW 123 0 0 Left 0
WINDOW 39 0 0 Left 0
SYMATTR InstName V1
SYMATTR Value 30
SYMBOL ind 416 480 R0
SYMATTR InstName L1
SYMATTR Value 47e-6
SYMATTR SpiceLine Rser=2
SYMBOL voltage -624 256 R0
WINDOW 123 24 124 Left 2
WINDOW 39 0 0 Left 0
SYMATTR Value2 AC 1
SYMATTR InstName V3
SYMATTR Value PULSE(0 3.3 0 0.005 0.005 0.015 0.04)
SYMBOL cap 512 512 R0
SYMATTR InstName C1
SYMATTR Value 1e-9
SYMATTR SpiceLine V=50
SYMBOL res 416 336 R0
SYMATTR InstName R1
SYMATTR Value 20e-3
SYMATTR SpiceLine tol=1
SYMBOL res 416 320 R90
WINDOW 0 0 56 VBottom 2
WINDOW 3 32 56 VTop 2
SYMATTR InstName R2
SYMATTR Value 10
SYMBOL res 416 448 R90
WINDOW 0 0 56 VBottom 2
WINDOW 3 32 56 VTop 2
SYMATTR InstName R3
SYMATTR Value 10
SYMBOL cap 272 368 R0
SYMATTR InstName C2
SYMATTR Value 3.3e-9
SYMBOL Opamps\\AD8205 0 480 M0
SYMATTR InstName U2
SYMBOL voltage 208 544 R0
WINDOW 123 0 0 Left 0
WINDOW 39 0 0 Left 0
SYMATTR InstName V2
SYMATTR Value 15
SYMBOL res 192 16 R90
WINDOW 0 0 56 VBottom 2
WINDOW 3 32 56 VTop 2
SYMATTR InstName R4
SYMATTR Value 1
SYMATTR SpiceLine tol=1
SYMBOL res 32 16 R90
WINDOW 0 0 56 VBottom 2
WINDOW 3 32 56 VTop 2
SYMATTR InstName R5
SYMATTR Value 10e3
SYMATTR SpiceLine tol=1
SYMBOL res -224 64 R90
WINDOW 0 0 56 VBottom 2
WINDOW 3 32 56 VTop 2
SYMATTR InstName R6
SYMATTR Value 10e3
SYMATTR SpiceLine tol=1
SYMBOL res -224 400 R90
WINDOW 0 0 56 VBottom 2
WINDOW 3 32 56 VTop 2
SYMATTR InstName R7
SYMATTR Value 30e3
SYMATTR SpiceLine tol=1
SYMBOL res -400 64 R90
WINDOW 0 0 56 VBottom 2
WINDOW 3 32 56 VTop 2
SYMATTR InstName R8
SYMATTR Value 10e3
SYMATTR SpiceLine tol=1
SYMBOL res -400 192 R90
WINDOW 0 0 56 VBottom 2
WINDOW 3 32 56 VTop 2
SYMATTR InstName R9
SYMATTR Value 10e3
SYMATTR SpiceLine tol=1
SYMBOL Opamps\\ADA4622 -288 128 R0
SYMATTR InstName U4
SYMBOL voltage 672 176 R0
WINDOW 123 0 0 Left 0
WINDOW 39 0 0 Left 0
SYMATTR InstName V5
SYMATTR Value 10
TEXT 352 -16 Left 2 !.tran 0 .5 .4 0.0001
